32
PHE_xar
N          0.57781        0.62032        1.04484
C          0.79495       -0.73109        0.53655
C          2.26139       -1.10988        0.30929
O          2.69595       -2.16542        0.76139
C         -0.04209       -1.03204       -0.72032
C         -1.48800       -0.70702       -0.48631
C         -2.04690        0.46817       -0.99655
C         -2.28596       -1.54406        0.30005
C         -3.37333        0.80118       -0.72526
C         -3.61116       -1.21496        0.57401
C         -4.15745       -0.03774        0.06403
H          0.15599        0.68785        1.95490
H          0.46418       -1.39846        1.32973
H          0.08949       -2.09325       -0.93893
H          0.34326       -0.46109       -1.56224
H         -1.43633        1.11803       -1.61142
H         -1.86759       -2.46444        0.69115
H         -3.79432        1.71024       -1.13385
H         -4.21741       -1.87685        1.17769
H         -5.18713        0.21798        0.27321
N          2.96749       -0.24170       -0.44395
H          2.48053        0.57979       -0.78680
C          4.35245       -0.48167       -0.78372
H          4.50014       -0.40002       -1.85862
H          5.01257        0.22570       -0.28323
H          4.60381       -1.48732       -0.46108
C          0.61681        1.75872        0.31327
O          1.06896        1.80681       -0.83307
C          0.03519        2.97431        0.98805
H          0.09580        2.91966        2.07269
H         -1.01400        3.05169        0.70288
H          0.55600        3.85787        0.63359
