14
R43
C          0.00000        0.78194        1.31099
C          0.00000       -0.78194        1.31099
C          0.00000        0.73929       -0.21337
C          0.00000       -0.73929       -0.21337
C          0.00000        1.66894       -1.16067
C          0.00000       -1.66894       -1.16067
H          0.88511        1.23833        1.75269
H         -0.88511        1.23833        1.75269
H          0.88511       -1.23833        1.75269
H         -0.88511       -1.23833        1.75269
H          0.00000        2.72314       -0.91715
H          0.00000        1.40376       -2.20992
H          0.00000       -1.40376       -2.20992
H          0.00000       -2.72314       -0.91715
