13
C3H7NCO
C         -4.26990        1.41275        1.47463
H         -4.72717        1.06442        2.41361
C         -2.77516        1.07540        1.49993
H         -2.29422        1.40781        0.56425
H         -2.28492        1.61892        2.32092
N         -2.50904       -0.33441        1.69919
C         -2.75110       -1.38495        1.15040
O         -2.91070       -2.47662        0.72228
H         -4.74966        0.84590        0.66072
C         -4.51433        2.91185        1.28773
H         -4.05790        3.49746        2.09972
H         -4.09280        3.27247        0.33767
H         -5.58936        3.13665        1.28043
