8
16
N          0.05498       -2.12560        0.00000
P          0.05498        1.19949        0.00000
H         -0.48623       -2.97977        0.00000
H         -0.38580        2.54991        0.00000
H          0.65552       -2.14648        0.81343
H         -0.82430        0.80483        1.03574
H          0.65552       -2.14648       -0.81343
H         -0.82430        0.80483       -1.03574
