6
h2o2+_1.5
O          1.51618        0.00000        0.06984
O         -1.51618        0.00000       -0.06984
H          1.64955        0.77514       -0.50952
H          1.64955       -0.77514       -0.50952
H         -1.64955        0.77514        0.50952
H         -1.64955       -0.77514        0.50952
