29
Amino20x4-HIS_xau
N         -1.65143        0.10512       -0.30625
H         -1.51333        0.36259       -1.27642
C         -0.73395        0.75904        0.59832
H         -1.29239        1.41997        1.26645
C          0.03487       -0.26795        1.45075
C          0.21905        1.57323       -0.27519
H          0.54440        0.23428        2.27478
H         -0.70736       -0.92763        1.90142
C          1.05009       -1.00799        0.65858
O          0.12804        1.57008       -1.49985
N          0.73724       -1.79490       -0.42163
C          2.42863       -1.05978        0.73019
H         -0.19325       -1.92753       -0.78218
C          1.90026       -2.27090       -0.94539
N          2.95122       -1.84640       -0.26365
H          3.05934       -0.57794        1.45899
H          1.92512       -2.91219       -1.80931
C         -2.87714       -0.30126        0.14119
C         -3.84278       -0.74136       -0.93147
O         -3.15892       -0.32302        1.33252
H         -4.67933       -0.04574       -0.94768
H         -4.23495       -1.72032       -0.66872
H         -3.39202       -0.78022       -1.91991
N          1.15075        2.28516        0.39206
C          2.23420        2.92960       -0.32627
H          1.25480        2.12283        1.37787
H          2.71889        3.64479        0.33112
H          2.96513        2.20116       -0.67681
H          1.82530        3.45003       -1.18638
