8
c2h6
C          0.00000        0.00000       -0.76169
C          0.00000        0.00000        0.76169
H         -0.87860        0.50726       -1.15577
H          0.00000       -1.01452       -1.15577
H          0.87860        0.50726       -1.15577
H         -0.87860       -0.50726        1.15577
H          0.00000        1.01452        1.15577
H          0.87860       -0.50726        1.15577
