20
YBDE18-nme3-cbh22
C          0.24962       -1.00062        0.00000
N         -0.09479        0.48214        0.00000
B          1.66739       -1.46639        0.00000
B         -0.89685       -1.95857        0.00000
H          1.84009       -2.64652        0.00000
H          2.63549       -0.75794        0.00000
H         -2.05327       -1.61541        0.00000
H         -0.66322       -3.12672        0.00000
C         -0.89685        0.81567        1.21098
H         -1.14765        1.87680        1.19642
H         -1.79404        0.20645        1.20165
H         -0.29502        0.57077        2.08135
C         -0.89685        0.81567       -1.21098
H         -1.14765        1.87680       -1.19642
H         -0.29502        0.57077       -2.08135
H         -1.79404        0.20645       -1.20165
C          1.10477        1.35547        0.00000
H          0.77336        2.39306        0.00000
H          1.69381        1.13911        0.88496
H          1.69381        1.13911       -0.88496
