22
ADIM6-AD3
C          0.42047        1.88177        0.00000
C         -0.42047        1.99729        1.26823
C         -0.42047        1.99729       -1.26823
H          1.19099        2.66127        0.00000
H          0.95226        0.92339        0.00000
H          0.19599        1.91261        2.16788
H         -1.17929        1.20933        1.30485
H         -0.93872        2.96067        1.30485
H          0.19599        1.91261       -2.16788
H         -1.17929        1.20933       -1.30485
H         -0.93872        2.96067       -1.30485
C         -0.42047       -1.88177        0.00000
C          0.42047       -1.99729       -1.26823
C          0.42047       -1.99729        1.26823
H         -0.95226       -0.92339        0.00000
H         -1.19099       -2.66127        0.00000
H         -0.19599       -1.91261       -2.16788
H          0.93872       -2.96067       -1.30485
H          1.17929       -1.20933       -1.30485
H         -0.19599       -1.91261        2.16788
H          0.93872       -2.96067        1.30485
H          1.17929       -1.20933        1.30485
