6
BH76RC-fch3fcomp
F          0.00000        0.00000       -1.79137
C          0.00000        0.00000       -0.36562
H         -0.51179        0.88645       -0.01759
H         -0.51179       -0.88645       -0.01759
H          1.02358        0.00000       -0.01759
F          0.00000        0.00000        2.20975
