8
BHROT27-ethane_ecl
C          0.00000        0.00000       -0.76368
C          0.00000        0.00000        0.76368
H          1.00875        0.00000       -1.16760
H         -0.50437       -0.87360       -1.16760
H         -0.50437        0.87360       -1.16760
H          1.00875        0.00000        1.16760
H         -0.50437        0.87360        1.16760
H         -0.50437       -0.87360        1.16760
