20
BSR36-h4
C          0.29678        0.12840       -2.55976
C          0.44555       -0.63766       -1.25065
C          0.11514        0.17749        0.00000
C          0.44555       -0.63766        1.25065
C          0.29678        0.12840        2.55976
C         -1.33995        0.63350        0.00000
H          0.89151        1.04212       -2.54129
H          0.63440       -0.47099       -3.40387
H         -0.73764        0.40730       -2.75036
H          1.47251       -1.00034       -1.16403
H         -0.19401       -1.52536       -1.26673
H          0.75694        1.06641        0.00000
H          1.47251       -1.00034        1.16403
H         -0.19401       -1.52536        1.26673
H          0.89151        1.04212        2.54129
H          0.63440       -0.47099        3.40387
H         -0.73764        0.40730        2.75036
H         -2.00392       -0.23389        0.00000
H         -1.57321        1.23477       -0.87655
H         -1.57321        1.23477        0.87655
