6
G21IP-IP_72
C          0.00000        0.00000        0.69419
C          0.00000        0.00000       -0.69419
H         -0.90339        0.23020       -1.25664
H          0.90339       -0.23020       -1.25664
H          0.90339        0.23020        1.25664
H         -0.90339       -0.23020        1.25664
