16
HAL59-MeI_pyr
C         -0.00035       -3.76390        0.00000
I          0.00019       -1.63095        0.00000
H          1.02777       -4.10924        0.00000
H         -0.51382       -4.10959        0.89051
H         -0.51382       -4.10959       -0.89051
C         -1.19176        3.55654        0.00000
C         -1.13832        2.17152        0.00000
N          0.00000        1.48516        0.00000
H          2.04975        1.58334        0.00000
H          2.14610        4.06471        0.00000
H         -0.00053        5.34528        0.00000
H         -2.14680        4.06413        0.00000
H         -2.04977        1.58276        0.00000
C          1.13813        2.17184        0.00000
C         -0.00038        4.26254        0.00000
C          1.19120        3.55687        0.00000
