10
ISO34-E7
C         -1.84270       -0.11822        0.00000
C         -0.60989        0.39585        0.00000
C          0.60989       -0.39585        0.00000
C          1.84270        0.11822        0.00000
H         -2.01012       -1.19009        0.00000
H         -2.72189        0.51348        0.00000
H         -0.48338        1.47603        0.00000
H          0.48338       -1.47603        0.00000
H          2.01012        1.19009        0.00000
H          2.72189       -0.51348        0.00000
