15
ISO34-E12
C         -0.00618        0.71926        0.00000
C          1.19598        0.00418        0.00000
C          1.20275       -1.38580        0.00000
C          0.00215       -2.09210        0.00000
C         -1.20032       -1.39443        0.00000
C         -1.20135       -0.00154        0.00000
C         -0.00251        2.22798        0.00000
H          2.13730        0.54400        0.00000
H          2.14598       -1.91979        0.00000
H          0.00598       -3.17557        0.00000
H         -2.14084       -1.93310        0.00000
H         -2.14527        0.53278        0.00000
H         -1.01770        2.62731        0.00000
H          0.51201        2.62341        0.88016
H          0.51201        2.62341       -0.88016
