26
ISOL24-i13e
C         -1.47627       -1.15316       -0.29280
C         -2.86893       -1.15881       -0.29469
C         -3.59227        0.00185        0.03824
C         -2.86825        1.16159        0.37328
C         -1.47569        1.15450        0.37340
C         -0.73931        0.00023        0.04106
C          1.47627        1.15316       -0.29280
C          0.73931       -0.00023        0.04106
C          1.47569       -1.15450        0.37340
C          2.86825       -1.16159        0.37328
C          3.59227       -0.00185        0.03824
C          2.86893        1.15881       -0.29469
N          4.99097        0.01385        0.09237
N         -4.99097       -0.01385        0.09237
H         -0.94558       -2.05785       -0.58259
H         -3.40777       -2.06660       -0.56554
H         -3.40668        2.06805        0.64904
H         -0.94443        2.05992        0.65974
H          0.94558        2.05785       -0.58259
H          0.94443       -2.05992        0.65974
H          3.40668       -2.06805        0.64904
H          3.40777        2.06660       -0.56554
H          5.43535       -0.88784       -0.02464
H          5.43455        0.73127       -0.46688
H         -5.43455       -0.73127       -0.46688
H         -5.43535        0.88784       -0.02464
