7
PArel-c2cl43
C          0.00000       -0.70865        0.09965
C          0.00000        0.70865        0.09965
Cl        -1.44591       -1.57043        0.21086
Cl         1.44591       -1.57043        0.21086
Cl        -1.44591        1.57043        0.21086
Cl         1.44591        1.57043        0.21086
H          0.00000        0.00000       -1.04274
