7
PArel-c2cl41
C          0.66671        0.00000        0.37021
C         -0.66671        0.00000        0.37021
Cl         1.65414        0.00000        1.71517
Cl         1.47342        0.00000       -1.20290
Cl        -1.65414        0.00000        1.71517
Cl        -1.47342        0.00000       -1.20290
H          0.00000        0.00000       -1.76495
