16
PArel-T1
N         -0.42446        1.90404        0.00000
N          1.57278        0.74848        0.00000
C         -0.47292       -0.47295        0.00000
C          0.93391       -0.42343        0.00000
C         -1.09343        0.74309        0.00000
C          0.95939        2.00784        0.00000
C         -1.21044       -1.77768        0.00000
O          1.71319       -1.45672        0.00000
O          1.56388        3.02802        0.00000
H         -0.92832        2.78394        0.00000
H          2.59100        0.75873        0.00000
H         -2.17423        0.82029        0.00000
H         -0.99425       -2.37534       -0.88874
H         -0.99425       -2.37534        0.88874
H         -2.28648       -1.61069        0.00000
H          1.24466       -2.30228        0.00000
