9
RG18-c2h6Ne
C          0.76326        0.00000       -0.39982
C         -0.76326        0.00000       -0.39982
H          1.15784        1.01693       -0.39977
H          1.15784       -0.50851        0.48084
H          1.15784       -0.50842       -1.28054
H         -1.15784       -1.01693       -0.39977
H         -1.15784        0.50851        0.48084
H         -1.15784        0.50842       -1.28054
Ne         0.00000       -0.00000        3.19859
