8
RSE43-E30
C         -1.02967        0.12458        0.00000
O          0.26189        0.75626        0.00000
C          1.33422       -0.05844        0.00000
O          2.45668        0.34979        0.00000
H         -1.75566        0.93294        0.00000
H         -1.16920       -0.48628       -0.89451
H         -1.16920       -0.48628        0.89451
H          1.07095       -1.13256        0.00000
