17
S66-45B
C         -2.53045       -0.30155       -0.01189
H         -2.53882       -0.96350       -0.87830
H         -2.58237       -0.92781        0.87870
H         -3.43287        0.30736       -0.04465
C         -1.26991        0.55306       -0.00082
H         -1.28656        1.22605        0.85959
H         -1.24464        1.18727       -0.88961
C          0.00001       -0.28528        0.03964
H          0.00001       -0.90307        0.94270
H          0.00008       -0.97357       -0.80960
C          1.26991        0.55310       -0.00073
H          1.28653        1.22607        0.85969
H          1.24476        1.18727       -0.88953
C          2.53044       -0.30154       -0.01168
H          2.53882       -0.96352       -0.87806
H          3.43282        0.30740       -0.04440
H          2.58226       -0.92775        0.87896
