7
S66-11A
N         -0.15681        0.58167       -0.69646
H          0.54378        0.32871       -1.38517
H         -1.04835        0.29422       -1.07799
C          0.10739       -0.16699        0.53124
H         -0.64425        0.08157        1.27840
H          0.12488       -1.25499        0.41729
H          1.07336        0.13581        0.93269
