59
UPU23-1p
H         -0.99840       -3.34938       -3.37114
O         -0.31555       -2.95923       -2.80288
C          0.19851       -3.99604       -1.95327
H          0.62565       -4.81188       -2.55043
H         -0.58927       -4.40510       -1.30617
C          1.26098       -3.40205       -1.05728
H          1.65247       -4.19845       -0.41057
O          2.35196       -2.85339       -1.84131
C          2.90856       -1.72621       -1.18788
H          3.97090       -1.87493       -0.98911
N          2.80152       -0.54915       -2.09732
C          1.89068       -0.50208       -3.12454
H          1.27855       -1.39225       -3.22984
C          1.77532        0.57572       -3.93992
H          1.04288        0.59233       -4.73520
C          2.61851        1.72735       -3.74262
O          2.62936        2.76312       -4.41778
N          3.48573        1.60665       -2.64309
H          4.08628        2.40279       -2.44369
C          3.62299        0.53181       -1.79193
O          4.39936        0.52120       -0.83610
C          0.80028       -2.23569       -0.18509
H          0.10196       -1.59830       -0.73573
C          2.11739       -1.50574        0.11311
H          1.98469       -0.43985        0.32727
O          2.80852       -2.15444        1.18031
H          2.11211       -2.51895        1.76241
O          0.19000       -2.71614        1.01974
P         -1.26737       -2.06137        1.45277
O         -1.64736       -2.80626        2.69590
O         -2.17063       -1.94989        0.26482
O         -0.86325       -0.52108        1.79957
C         -0.04648       -0.15185        2.92655
H          0.97268        0.05093        2.58349
H         -0.03743       -0.95239        3.67434
C         -0.67951        1.10070        3.50637
H         -0.13147        1.41283        4.40007
O         -0.60891        2.20201        2.55869
C         -1.87549        2.41053        1.93483
H         -2.18692        3.43613        2.14213
N         -1.72803        2.36033        0.46092
C         -1.97947        1.24563       -0.30660
H         -2.32064        0.36135        0.21386
C         -1.79511        1.21429       -1.64974
H         -2.01147        0.31386       -2.20895
C         -1.30815        2.37665       -2.34386
O         -1.12435        2.49846       -3.55901
N         -1.00889        3.44670       -1.48286
H         -0.63318        4.28809       -1.91264
C         -1.17058        3.50886       -0.11548
O         -0.84780        4.49695        0.54131
C         -2.16384        0.90943        3.82448
H         -2.40462       -0.13869        4.01155
C         -2.89472        1.43117        2.55735
H         -3.11667        0.59252        1.90062
O         -4.13010        2.06221        2.86287
H         -4.00370        2.44869        3.75492
O         -2.53207        1.71006        4.96254
H         -3.09635        1.17134        5.53928
