8
W4-11-b2h6
B         -0.87889        0.00000        0.00000
B          0.87889        0.00000        0.00000
H          0.00000        0.00000        0.97522
H          0.00000        0.00000       -0.97522
H         -1.45234        1.03966        0.00000
H         -1.45234       -1.03966        0.00000
H          1.45234       -1.03966        0.00000
H          1.45234        1.03966        0.00000
