20
ACONF-H_x+g-g-
C          1.73988        1.15132       -0.09756
C          1.70692       -0.37055       -0.20583
C          0.59035       -1.04137        0.60439
C         -0.71003       -1.27166       -0.16741
C         -1.41489       -0.01914       -0.68301
C         -1.87173        0.91577        0.43014
H          1.86326        1.45477        0.94234
H          0.82582        1.60960       -0.46770
H          2.57256        1.56636       -0.66441
H          2.67060       -0.75352        0.13326
H          1.61629       -0.66667       -1.25417
H          0.39725       -0.45771        1.50778
H          0.93878       -2.01678        0.94834
H         -1.40578       -1.81991        0.47383
H         -0.49036       -1.92769       -1.01366
H         -2.28450       -0.32943       -1.26539
H         -0.76415        0.51399       -1.37803
H         -2.42079        1.76741        0.03088
H         -1.03069        1.30421        1.00173
H         -2.52879        0.39098        1.12447
