23
AL2X6-al2me5
C         -0.39390       -1.69644        2.27886
Al        -0.24380        0.00994        1.31137
C         -0.24380        1.79561        2.14028
C          1.45660       -0.21715        0.00000
Al        -0.24380        0.00994       -1.31137
C         -0.39390       -1.69644       -2.27886
H         -1.37187        0.03034        0.00000
C         -0.24380        1.79561       -2.14028
H         -1.18699        1.99835       -2.65258
H         -0.09475        2.59271       -1.40914
H          0.54793        1.88765       -2.88836
H         -1.29954       -1.73365       -2.88822
H          0.45100       -1.84234       -2.95669
H         -0.42011       -2.55273       -1.60224
H         -1.18699        1.99835        2.65258
H          0.54793        1.88765        2.88836
H         -0.09475        2.59271        1.40914
H         -1.29954       -1.73365        2.88822
H         -0.42011       -2.55273        1.60224
H          0.45100       -1.84234        2.95669
H          1.96283        0.26658        0.84542
H          1.75755       -1.26456        0.00000
H          1.96283        0.26658       -0.84542
