10
AL2X6-alme2
C          0.00000        1.73001       -0.24261
Al         0.00000        0.00000        0.69739
C          0.00000       -1.73001       -0.24261
H          0.00000        0.00000        2.28536
H          0.00000        1.63396       -1.32844
H          0.87344        2.32376        0.03984
H         -0.87344        2.32376        0.03984
H         -0.87344       -2.32376        0.03984
H          0.87344       -2.32376        0.03984
H          0.00000       -1.63396       -1.32844
