31
Amino20x4-LEU_xap
N         -1.03120       -1.11767       -0.51875
C          0.08548       -0.35333        0.02072
C         -0.11258        1.12496       -0.33071
O          0.42697        1.65091       -1.29956
C          1.39359       -0.89157       -0.52663
C          2.63897       -0.19900        0.02585
C          2.68749       -0.24156        1.54979
C          3.88239       -0.85504       -0.56298
H         -0.95014       -1.49004       -1.45002
H          0.03430       -0.47480        1.10188
H          1.38444       -0.78106       -1.61369
H          1.44394       -1.95975       -0.29468
H          2.60985        0.84216       -0.29843
H          2.61697       -1.27106        1.90795
H          3.62782        0.17287        1.91258
H          1.88068        0.33219        2.00439
H          3.95002       -1.89740       -0.24529
H          4.78742       -0.34594       -0.23317
H          3.86077       -0.83493       -1.65243
N         -0.95116        1.76892        0.51391
H         -1.50512        1.18101        1.12472
C         -1.37992        3.12207        0.22856
H         -1.76203        3.57532        1.13843
H         -0.52654        3.69020       -0.12905
H         -2.15332        3.15277       -0.53980
C         -2.21543       -1.21007        0.13495
O         -2.41118       -0.66543        1.22173
C         -3.27876       -2.03611       -0.54273
H         -3.58251       -2.82883        0.13657
H         -2.94994       -2.47352       -1.48194
H         -4.14581       -1.40488       -0.72236
