22
Amino20x4-ALA_xag
N         -1.04932       -0.36461        0.19912
H         -0.81512       -1.23375        0.65349
C          0.05129        0.52612       -0.06345
H         -0.05240        0.91330       -1.07886
C          0.07484        1.69843        0.91827
C          1.32689       -0.29419        0.06576
H          0.89480        2.38076        0.69743
H         -0.86435        2.24069        0.84206
H          0.19463        1.32381        1.93372
O          1.35591       -1.34258        0.70313
C         -2.30806       -0.06860       -0.20936
C         -3.35553       -1.10638        0.11288
H         -3.82919       -1.41919       -0.81448
H         -4.12031       -0.64537        0.73340
H         -2.95274       -1.97650        0.62490
O         -2.57561        0.97325       -0.79992
N          2.41287        0.25498       -0.52634
H          2.28017        1.08128       -1.08221
C          3.72513       -0.35204       -0.45430
H          4.46855        0.38065       -0.14919
H          4.01852       -0.78244       -1.41043
H          3.67519       -1.14423        0.28552
