10
BH76-c3h7ts
C         -0.59350        0.66586       -0.00005
C         -1.50399       -0.34396       -0.00001
H         -0.35341        1.18451       -0.91727
H         -0.35371        1.18469        0.91717
H         -1.84850       -0.78988        0.92252
H         -1.84830       -0.79020       -0.92244
C          1.49065       -0.22226        0.00003
H          2.07381        0.68860       -0.00127
H          1.46806       -0.78969       -0.91864
H          1.46888       -0.78767        0.91996
