8
BH76-C2H6
C         -0.76309        0.00000       -0.00000
C          0.76309        0.00000       -0.00000
H          1.15831       -0.44364       -0.91410
H         -1.15831       -1.01333       -0.07464
H          1.15831       -0.56981        0.84125
H          1.15831        1.01345        0.07285
H         -1.15831        0.44202        0.91488
H         -1.15831        0.57131       -0.84024
