6
BH76-RKT07
N         -0.92592       -0.19601       -0.21712
O          1.40409       -0.24477       -0.12485
H         -1.07828       -0.69972        0.65201
H         -1.11401        0.78373       -0.02271
H          0.19421       -0.30591       -0.46775
H          1.51991        0.66268        0.18043
