6
BHROT27-n2h4_st1
N          0.05076        0.70669       -0.22188
N         -0.05076       -0.70669       -0.22188
H          0.85238       -1.08388       -0.45778
H         -0.32359       -1.07405        0.67965
H         -0.85238        1.08388       -0.45778
H          0.32359        1.07405        0.67965
