21
BSR36-r7
C         -0.83900       -0.55476        0.12422
C          0.10642       -1.70801       -0.22089
C         -0.27551        0.57142       -0.75712
C          1.24721        0.43426       -0.58725
C          1.50329       -1.05774       -0.26813
C         -0.79722       -0.22697        1.61276
C         -0.80064        1.96819       -0.47222
H         -1.86806       -0.78710       -0.15874
H          0.04749       -2.53311        0.48912
H         -0.15198       -2.10150       -1.20553
H         -0.52456        0.31100       -1.79061
H          1.77861        0.76806       -1.47747
H          1.58240        1.06792        0.23532
H          2.14002       -1.53478       -1.01067
H          2.00670       -1.16216        0.69189
H          0.20819        0.05001        1.93218
H         -1.10308       -1.09302        2.19961
H         -1.46447        0.59649        1.86325
H         -0.52715        2.29048        0.53226
H         -1.88699        2.01166       -0.55809
H         -0.38165        2.68966       -1.17387
