18
BSR36-r2
C          1.25759        0.72607        0.23497
C         -1.25759        0.72607        0.23497
C          0.00000       -1.45214        0.23497
C          1.25759       -0.72607       -0.23497
C         -1.25759       -0.72607       -0.23497
C          0.00000        1.45214       -0.23497
H          2.15015        1.24139       -0.12286
H          1.29511        0.74773        1.32818
H         -2.15015        1.24139       -0.12286
H         -1.29511        0.74773        1.32818
H          0.00000       -1.49546        1.32818
H          0.00000       -2.48279       -0.12286
H          1.29511       -0.74773       -1.32818
H          2.15015       -1.24139        0.12286
H         -1.29511       -0.74773       -1.32818
H         -2.15015       -1.24139        0.12286
H          0.00000        2.48279        0.12286
H          0.00000        1.49546       -1.32818
