17
CDIE20-P60
C          0.27999        0.71620       -1.22260
C         -0.27999       -0.71620       -1.22260
C          0.00000        0.00000        1.10359
C          0.00000        1.20485        0.18000
C          0.00000       -1.20485        0.18000
C         -0.26073        2.45542        0.53292
C          0.26073       -2.45542        0.53292
H         -0.14890        1.36051       -1.98812
H          1.36186        0.67963       -1.38675
H          0.14890       -1.36051       -1.98812
H         -1.36186       -0.67963       -1.38675
H         -0.87641        0.00630        1.75549
H          0.87641       -0.00630        1.75549
H         -0.26599        3.25797       -0.19309
H         -0.47492        2.72296        1.55981
H          0.26599       -3.25797       -0.19309
H          0.47492       -2.72296        1.55981
