12
DC13-C6Cl6
C         -1.20459        0.69547        0.00000
C         -1.20459       -0.69547        0.00000
C         -0.00000       -1.39096        0.00000
C          1.20459       -0.69547        0.00000
C          1.20459        0.69547        0.00000
C         -0.00000        1.39096        0.00000
Cl        -2.68273       -1.54889        0.00000
Cl        -0.00000       -3.09766        0.00000
Cl         2.68273       -1.54889        0.00000
Cl         2.68273        1.54889        0.00000
Cl        -0.00000        3.09766        0.00000
Cl        -2.68273        1.54889        0.00000
