8
DIPCS10-c2h6_2+
C          0.13123       -0.66179        0.00000
C         -0.13123        0.66179        0.00000
H         -0.80708       -1.32583        0.49167
H         -0.80708       -1.32583       -0.49167
H          1.08171       -1.20630        0.00000
H          0.80708        1.32583       -0.49167
H         -1.08171        1.20630        0.00000
H          0.80708        1.32583        0.49167
