20
FH51-dimethylbutane
C         -4.41281       -1.92012       -0.05493
H         -4.15092       -2.98614       -0.07030
H         -3.99790       -1.45767       -0.96533
H         -5.50859       -1.84999       -0.11931
C         -3.89806       -1.20474        1.20370
H         -4.29404       -1.74402        2.08581
C         -2.35078       -1.23902        1.31116
H         -1.95480       -0.70020        0.42877
C         -1.83591       -0.52307        2.56942
H         -2.25106       -0.98481        3.48006
H         -0.74016       -0.59353        2.63394
H         -2.09742        0.54305        2.58411
C         -4.45442        0.22711        1.23842
H         -4.23133        0.74415        2.18116
H         -4.03530        0.82950        0.41600
H         -5.54781        0.22109        1.11870
C         -1.79456       -2.67095        1.27712
H         -0.70112       -2.66496        1.39644
H         -2.21343       -3.27277        2.10007
H         -2.01803       -3.18857        0.33478
