12
G2RC-94
C          1.20481        0.69560        0.00000
C          1.20481       -0.69560        0.00000
C          0.00000       -1.39120        0.00000
C         -1.20481       -0.69560        0.00000
C         -1.20481        0.69560        0.00000
C          0.00000        1.39120        0.00000
H          2.14202        1.23669        0.00000
H          2.14202       -1.23669        0.00000
H          0.00000       -2.47340        0.00000
H         -2.14202       -1.23669        0.00000
H         -2.14202        1.23669        0.00000
H          0.00000        2.47340        0.00000
