15
HAL59-PCH_PhBr
P          0.00000        0.00000        4.09013
C          0.00000        0.00000        5.61552
H          0.00000        0.00000        6.68720
Br         0.00000        0.00000        0.45650
C          0.00000        0.00000       -1.43621
C          0.00000        1.20671       -2.11548
C          0.00000        1.19957       -3.50239
C          0.00000        0.00000       -4.19769
C          0.00000       -1.19957       -3.50239
C          0.00000       -1.20671       -2.11548
H          0.00000        2.13899       -1.56743
H          0.00000        2.13973       -4.03869
H          0.00000        0.00000       -5.27982
H          0.00000       -2.13973       -4.03869
H          0.00000       -2.13899       -1.56743
