15
HAL59-PCH_PhI
P          0.00000        0.00000        4.19845
C          0.00000        0.00000        5.72357
H          0.00000        0.00000        6.79525
I          0.00000        0.00000        0.43481
C          0.00000        0.00000       -1.66090
C          0.00000        1.20554       -2.34624
C          0.00000        1.19922       -3.73353
C          0.00000        0.00000       -4.42901
C          0.00000       -1.19922       -3.73353
C          0.00000       -1.20554       -2.34624
H          0.00000        2.14258       -1.80580
H          0.00000        2.13972       -4.26947
H          0.00000        0.00000       -5.51127
H          0.00000       -2.13972       -4.26947
H          0.00000       -2.14258       -1.80580
