15
HAL59-NCH_PhI
N          0.00000        0.00000        4.09666
C          0.00000        0.00000        5.23894
H          0.00000        0.00000        6.30635
I          0.00000        0.00000        0.83791
C          0.00000        0.00000       -1.25744
C          0.00000        1.20351       -1.94854
C          0.00000        1.19862       -3.33579
C          0.00000        0.00000       -4.03237
C          0.00000       -1.19862       -3.33579
C          0.00000       -1.20351       -1.94854
H          0.00000        2.14116       -1.40869
H          0.00000        2.13945       -3.87145
H          0.00000        0.00000       -5.11473
H          0.00000       -2.13945       -3.87145
H          0.00000       -2.14116       -1.40869
