33
MCONF-21
N         -1.15251        2.97952       -0.08447
C          0.14986        2.64091        0.21849
C          0.25222        1.28313        0.41488
C         -1.06827        0.74916        0.21970
C         -1.60092       -0.54672        0.28738
C         -2.95733       -0.73201        0.04865
C         -3.79622        0.36273       -0.25811
C         -3.28539        1.65500       -0.32735
C         -1.92338        1.83841       -0.08804
H         -1.48507        3.91090       -0.25203
H          0.91652        3.39694        0.27380
H         -0.98923       -1.40729        0.52488
H         -4.84857        0.21265       -0.44263
H         -3.93852        2.48597       -0.56104
O         -3.40299       -2.02828        0.13287
C         -4.78288       -2.24945       -0.09997
H         -5.40217       -1.71879        0.62664
H         -5.07247       -1.94912       -1.10946
H         -4.93592       -3.31870        0.01278
C          1.49675        0.50734        0.70898
C          2.02633       -0.19950       -0.54702
N          3.22201       -0.98609       -0.29081
C          4.44675       -0.39853       -0.18497
C          5.59246       -1.32975        0.15794
H          2.27819        1.16922        1.08318
H          1.30042       -0.24064        1.48220
H          1.26432       -0.86017       -0.96017
H          2.27181        0.54852       -1.29904
H          3.13186       -1.95921       -0.06335
O          4.61606        0.80091       -0.35927
H          5.99053       -1.04750        1.13116
H          5.30348       -2.37900        0.18103
H          6.38227       -1.19053       -0.57683
