37
PCONF21-366
O         -2.28984        1.62324        0.37259
C         -3.41985        1.88324        0.02659
O         -3.99985        3.08325        0.22459
H         -3.34085        3.62925        0.67859
C         -4.36385        0.94024       -0.69241
H         -4.57685        1.35224       -1.67641
H         -5.29585        0.90824       -0.13241
N         -3.81685       -0.38076       -0.80641
H         -3.05985       -0.52576       -1.46841
C         -3.73285       -1.12576        0.33759
O         -4.37585       -0.88276        1.34959
C         -2.69385       -2.23376        0.26059
H         -2.72885       -2.74577       -0.69941
H         -2.86585       -2.93677        1.06859
N         -1.38384       -1.62876        0.41159
H         -1.04984       -1.35376        1.32759
C         -0.79084       -0.98276       -0.61341
O         -1.19284       -1.02676       -1.77941
C          0.46416       -0.21876       -0.23241
N          0.41216        0.17024        1.17259
H          1.32216        0.51324        1.45959
H         -0.24784        0.93424        1.28059
H          0.51616        0.62524       -0.92541
C          1.67816       -1.12476       -0.48141
H          1.59716       -1.99476        0.17159
H          1.63416       -1.46776       -1.51641
C          2.96317       -0.39476       -0.22041
C          3.64617       -0.54876        0.98859
H          3.26517       -1.24576        1.72559
C          4.80917        0.17424        1.24959
H          5.32817        0.03924        2.18959
C          5.30517        1.06324        0.29959
H          6.20917        1.62224        0.49759
C          4.63317        1.22424       -0.91241
H          5.01717        1.90724       -1.65741
C          3.47117        0.50124       -1.16741
H          2.95417        0.62424       -2.11141
