18
PX13-h2o_6_ts
O          2.07916       -1.20040        0.09532
H          1.03545        1.79345        0.00000
H          2.07089        0.00000        0.00000
O          2.07916        1.20040       -0.09532
H          1.03545       -1.79345        0.00000
O          0.00000       -2.40081       -0.09532
H         -1.03545       -1.79345        0.00000
O          0.00000        2.40081        0.09532
H          0.00000        2.94057        0.88969
H          2.54661        1.47028       -0.88969
H          2.54661       -1.47028        0.88969
H          0.00000       -2.94057       -0.88969
O         -2.07916       -1.20040        0.09532
H         -1.03545        1.79345        0.00000
H         -2.54661       -1.47028        0.88969
O         -2.07916        1.20040       -0.09532
H         -2.07089        0.00000        0.00000
H         -2.54661        1.47028       -0.88969
