14
RC21-3p1
C          1.23832        0.00000       -0.18227
C          1.22853        0.00000        1.18399
C          0.00000        0.00000        1.85845
C         -1.22853        0.00000        1.18399
C         -1.23832        0.00000       -0.18227
C          0.00000        0.00000       -0.90235
C          0.00000        0.00000       -2.26408
H         -0.92730        0.00000       -2.82868
H          0.92730        0.00000       -2.82868
H          2.16959        0.00000       -0.73742
H          2.15324        0.00000        1.74657
H          0.00000        0.00000        2.94362
H         -2.15324        0.00000        1.74657
H         -2.16959        0.00000       -0.73742
