10
S22-8
C          0.00000        0.00000       -1.85916
C          0.00000        0.00000        1.85916
H          0.88862       -0.51305       -1.49459
H          0.00000        1.02609       -1.49459
H          0.00000        0.00000       -2.94829
H         -0.88862       -0.51305       -1.49459
H          0.00000        0.00000        2.94829
H         -0.88862        0.51305        1.49459
H          0.88862        0.51305        1.49459
H          0.00000       -1.02609        1.49459
