25
S66-61
C         -2.44370       -0.12736       -0.82425
H         -2.65908       -0.72022       -1.71315
H         -2.39468       -0.81074        0.02324
H         -3.28039        0.55265       -0.66819
C         -1.13005        0.62699       -0.98619
H         -0.95705        1.25814       -0.11088
H         -1.19453        1.30316       -1.84205
C          0.05815       -0.30700       -1.17560
H          0.14109       -0.96743       -0.30755
H         -0.12920       -0.95829       -2.03438
C          1.37465        0.42889       -1.38659
H          1.54328        1.11548       -0.55314
H          1.29774        1.05145       -2.28088
C          2.55923       -0.51915       -1.51813
H          2.42039       -1.19550       -2.36134
H          3.49316        0.01940       -1.67156
H          2.66685       -1.12970       -0.62151
C         -0.65192       -0.28015        2.46567
O         -1.07453       -1.39533        2.26852
O         -1.46561        0.77881        2.69826
H         -2.36637        0.42443        2.65773
C          0.78835        0.12951        2.48288
H          1.41417       -0.74067        2.32471
H          0.96439        0.86379        1.69975
H          1.02566        0.59881        3.43468
