24
S66-28
C          0.75811        1.40597       -1.80250
H          1.45335        2.23257       -1.84472
C          1.23250        0.10651       -1.63499
H          2.29600       -0.07281       -1.55458
C          0.33586       -0.95911       -1.56400
H          0.70609       -1.96798       -1.43813
C         -1.03547       -0.72574       -1.65911
H         -1.73287       -1.55054       -1.60182
C         -1.51117        0.57393       -1.82469
H         -2.57518        0.75495       -1.88640
C         -0.61342        1.63822       -1.89850
H         -0.98188        2.64688       -2.03010
N         -0.34254        0.84103        1.45640
H         -0.71585        1.74280        1.19350
C          1.04960        0.76805        1.58841
O          1.74052        1.76247        1.44358
C          1.52850       -0.56603        1.90652
H          2.58557       -0.71825        2.04064
C          0.64880       -1.58041        2.03274
H          0.95472       -2.58884        2.26926
N         -0.69645       -1.39538        1.86264
H         -1.34520       -2.15794        1.96151
C         -1.27090       -0.17058        1.56323
O         -2.46870       -0.01976        1.42112
