12
S66-17B
N          0.59092        1.16030        0.00000
H          1.03816        2.06687        0.00000
C          1.44697        0.04568        0.00000
O          2.65643        0.19738        0.00000
C          0.73275       -1.21650        0.00000
H          1.29933       -2.13153        0.00000
C         -0.61742       -1.22031        0.00000
H         -1.19438       -2.13328        0.00000
N         -1.35541       -0.06943        0.00000
H         -2.38175       -0.09087        0.00000
C         -0.78264        1.17523        0.00000
O         -1.43296        2.21645        0.00000
