14
ethylthiourea_180
S         -1.07651        1.55909       -0.16473
N          1.55759        1.52879       -0.00167
N          0.55024       -0.51665        0.07584
C          0.39481        0.81543       -0.01226
H          2.35939        1.14610        0.46702
H          1.43099        2.51921        0.08325
H          1.47821       -0.89064       -0.01024
C         -0.54350       -1.45978       -0.02538
C         -0.00843       -2.87305        0.00783
H         -1.23656       -1.28244        0.79376
H         -1.09795       -1.27089       -0.94300
H          0.49865       -3.08553        0.94699
H         -0.82163       -3.58326       -0.10446
H          0.69447       -3.04924       -0.80394
