28
BSR36-r14
C          0.22851        0.73340       -0.72045
C         -0.22851       -0.73340       -0.72045
C         -1.75579       -0.82243       -0.71750
C          0.40656       -1.51671        0.42956
C          1.75579        0.82243       -0.71750
C         -0.40656        1.51671        0.42956
C         -2.38592       -0.02947        0.42515
C          1.92929       -1.42561        0.38563
C          2.38592        0.02947        0.42515
C         -1.92929        1.42561        0.38563
H         -0.13588        1.18810       -1.64938
H          0.13588       -1.18810       -1.64938
H         -2.06314       -1.86998       -0.67013
H         -2.13307       -0.42412       -1.66435
H          0.05434       -1.13630        1.39109
H          0.08534       -2.55962        0.37146
H          2.06314        1.86998       -0.67013
H          2.13307        0.42412       -1.66435
H         -0.05434        1.13630        1.39109
H         -0.08534        2.55962        0.37146
H         -2.10756       -0.46996        1.38545
H         -3.47358       -0.08779        0.35995
H          2.36822       -1.98643        1.21237
H          2.28857       -1.88786       -0.53884
H          2.10756        0.46996        1.38545
H          3.47358        0.08779        0.35995
H         -2.36822        1.98643        1.21237
H         -2.28857        1.88786       -0.53884
