7
CARBHB12-3N
N         -2.02182        0.03843       -0.13709
H         -1.05692        0.34213       -0.15347
H         -2.58898        0.87369       -0.17721
H         -2.17994       -0.37485        0.77106
Si         1.99386        0.01385       -0.05021
H          2.87434       -0.37134       -1.20958
H          2.97946       -0.52190        0.95650
