18
FH51-methyl-d-valerolactone
C         -3.18154       -1.02120        0.11446
C         -1.64311       -1.03863        0.12997
C         -0.99798        0.33509        0.34206
C         -3.18268        1.29677        0.98928
C         -3.71162       -0.10632        1.21642
H         -1.26758       -1.36787       -0.85065
H         -3.54165       -0.65255       -0.86011
H         -3.56504       -2.04721        0.22474
H         -3.41732        1.97049        1.82408
H         -3.61246        1.72856        0.06960
H         -3.40393       -0.46948        2.20954
H         -4.81181       -0.07236        1.21369
O         -1.73617        1.36280        0.85871
O          0.17738        0.53214        0.11954
C         -1.07440       -2.00861        1.18629
H         -1.40766       -3.03349        0.96936
H          0.02223       -1.98762        1.17580
H         -1.41087       -1.74894        2.20034
