6
PX13-h2o_2_ts
O          0.00000        1.09811        0.00000
H          0.00000        0.00000        0.59649
H          0.00000        0.00000       -0.59649
O          0.00000       -1.09811        0.00000
H          0.86731        1.51749        0.00000
H         -0.86731       -1.51749        0.00000
