6
S66-44A
C          0.66619        0.00077        0.00034
H          1.22868       -0.51293        0.76687
H          1.22783        0.51417       -0.76700
C         -0.66618       -0.00007        0.00022
H         -1.22813       -0.51454        0.76671
H         -1.22839        0.51260       -0.76714
