13
AL2X6-alme3
C          0.00000        1.97299        0.00000
Al         0.00000        0.00000        0.00000
C          1.70866       -0.98650        0.00000
C         -1.70866       -0.98650        0.00000
H          0.99987        2.40813        0.00000
H         -0.53062        2.36190        0.87353
H         -0.53062        2.36190       -0.87353
H          2.31078       -0.72142       -0.87353
H          2.31078       -0.72142        0.87353
H          1.58557       -2.06998        0.00000
H         -2.58545       -0.33815        0.00000
H         -1.78016       -1.64048        0.87353
H         -1.78016       -1.64048       -0.87353
