31
Amino20x4-LEU_xad
N          0.13299        0.89734       -0.55346
C         -0.08501       -0.37288        0.12460
C          1.08917       -1.31700       -0.16402
O          1.01131       -2.24619       -0.96042
C         -1.40553       -0.98338       -0.30452
C         -2.62226       -0.08866       -0.07491
C         -3.88353       -0.82659       -0.51002
C         -2.73760        0.35459        1.37933
H         -0.20566        0.99984       -1.49559
H         -0.08638       -0.14730        1.19059
H         -1.53488       -1.91771        0.24694
H         -1.33156       -1.26854       -1.35634
H         -2.52098        0.80643       -0.69510
H         -4.03597       -1.71104        0.11071
H         -4.76440       -0.19285       -0.41166
H         -3.81357       -1.15478       -1.54695
H         -2.76404       -0.51543        2.03874
H         -3.65598        0.91963        1.53742
H         -1.90375        0.98572        1.68468
N          2.20268       -1.00296        0.53817
H          2.18789       -0.12686        1.04553
C          3.45370       -1.69095        0.30429
H          4.04073       -1.70003        1.21846
H          3.23145       -2.71076        0.00570
H          4.03696       -1.22103       -0.48838
C          0.88614        1.88563       -0.01182
O          1.43332        1.76928        1.08532
C          0.99878        3.14897       -0.82615
H          2.05174        3.35902       -0.99700
H          0.58861        3.97038       -0.24321
H          0.48064        3.09327       -1.78020
