31
Amino20x4-ILE_xae
N         -0.10884        0.99876       -0.59124
C         -0.25652       -0.31787        0.01221
C          1.03174       -1.10766       -0.24750
O          1.14851       -1.90229       -1.17489
C         -1.48876       -1.03880       -0.51649
C         -2.74314       -0.16168       -0.43524
C         -1.66645       -2.35443        0.23652
C         -3.04919        0.38258        0.95636
H         -0.33789        1.10851       -1.56504
H         -0.35245       -0.14708        1.08499
H         -1.29713       -1.28029       -1.56542
H         -2.65270        0.67614       -1.12866
H         -3.58746       -0.75755       -0.78810
H         -0.81642       -3.01162        0.06817
H         -1.76360       -2.18520        1.30916
H         -2.56455       -2.86854       -0.10464
H         -3.16314       -0.41851        1.68492
H         -3.97760        0.95151        0.94797
H         -2.26046        1.04754        1.30716
N          2.02209       -0.80590        0.62449
H          1.87385        0.00853        1.20690
C          3.36134       -1.31867        0.42709
H          3.92332       -0.72780       -0.29717
H          3.89061       -1.31753        1.37553
H          3.28982       -2.33516        0.05261
C          0.51225        2.01425        0.05964
O          0.95734        1.88912        1.20068
C          0.60312        3.31787       -0.69155
H          1.64862        3.60931       -0.75617
H          0.08211        4.08133       -0.11850
H          0.17827        3.26797       -1.69096
