28
Amino20x4-GLU_xav
N          1.29690       -1.06725        0.66788
H          1.42766       -1.36849        1.61879
C          0.10255       -0.30045        0.34265
H         -0.15026       -0.54675       -0.68806
C         -1.02640       -0.69984        1.27565
C          0.41148        1.19904        0.44992
H         -0.76204       -0.39828        2.28941
H         -1.13015       -1.78413        1.24198
C         -2.34820       -0.04700        0.90823
O          0.04677        1.87879        1.40620
H         -3.09991       -0.24347        1.67432
H         -2.25059        1.03628        0.85543
C         -2.90745       -0.55694       -0.39008
O         -4.01044        0.13585       -0.75679
O         -2.46647       -1.47449       -1.04516
C          2.26804       -1.31462       -0.24477
C          3.41076       -2.17569        0.22886
O          2.21706       -0.87928       -1.39491
H          3.42739       -3.08195       -0.37226
H          3.34019       -2.44523        1.27953
H          4.34284       -1.64515        0.05198
N          1.12431        1.66894       -0.59668
C          1.62913        3.02448       -0.61676
H          1.49396        0.97414       -1.23569
H          1.61021        3.41011       -1.63258
H          0.98860        3.63222        0.01459
H          2.64843        3.08384       -0.23433
H         -4.30455       -0.26988       -1.58621
