22
Amino20x4-ALA_xab
N          1.40705       -1.26605       -1.93713
H          1.85007       -0.46824       -1.50918
C         -0.03362       -1.39269       -1.74004
H         -0.56857       -1.01764       -2.61264
C         -0.44096       -2.84339       -1.48900
C         -0.47992       -0.55231       -0.55520
H         -1.51566       -2.89188       -1.32274
H         -0.18117       -3.45189       -2.34920
H          0.06990       -3.23300       -0.60873
O         -1.56668        0.00552       -0.52885
C          1.99245       -1.73097       -3.08870
C          3.42885       -1.30660       -3.28714
H          3.87723       -0.88843       -2.38921
H          3.46550       -0.56495       -4.08313
H          4.00254       -2.16971       -3.61211
O          1.40188       -2.43826       -3.89035
N          0.40869       -0.49102        0.47992
H          1.15592       -1.16525        0.48740
C          0.00723        0.11692        1.73426
H          0.88822        0.28499        2.34646
H         -0.47232        1.06738        1.52287
H         -0.70200       -0.50486        2.28058
