25
Amino20x4-ASP_xaz
N         -1.14806       -1.12267        0.07094
H         -0.96092       -2.11271        0.15230
C          0.00078       -0.27752       -0.10762
H         -0.06216        0.18048       -1.09960
C          0.07375        0.84741        0.95313
C          1.24624       -1.16027       -0.09648
H          0.86628        0.66039        1.67159
H         -0.87816        0.90372        1.47320
C          0.35122        2.13804        0.22240
O          1.15559       -2.38383       -0.04263
O         -0.70483        2.65854       -0.40919
O          1.46130        2.62160        0.13532
N          2.40076       -0.46910       -0.16610
C          3.69252       -1.12530       -0.18087
H          2.36245        0.54207       -0.15729
H          3.51807       -2.19595       -0.20227
H          4.25769       -0.83439       -1.06329
H          4.26647       -0.87383        0.70871
C         -2.38213       -0.61198       -0.09741
C         -3.53219       -1.57396        0.00375
O         -2.56266        0.59375       -0.31821
H         -4.04365       -1.60186       -0.95584
H         -4.23645       -1.19963        0.74217
H         -3.21753       -2.57795        0.27456
H         -1.45388        2.02263       -0.34068
