6
BH76-hfch3ts
H          0.00037        2.26247        0.00000
F         -0.00011        1.02398        0.00000
C         -0.00011       -0.64467        0.00000
H          1.05369       -0.88007        0.00000
H         -0.52692       -0.88086        0.91235
H         -0.52692       -0.88086       -0.91235
