14
BHPERI-TS2
C         -0.12282       -1.09054        1.14065
C          0.17200        0.23302        1.48249
C         -0.12282        1.35550        0.70296
C         -0.12282        1.35550       -0.70296
C          0.17200        0.23302       -1.48249
C         -0.12282       -1.09054       -1.14065
H          0.82454        0.40945        2.34049
H         -0.03332        2.33318        1.17511
H         -0.03332        2.33318       -1.17511
H          0.82454        0.40945       -2.34049
H          0.43031       -1.88603       -1.64115
H         -1.14789       -1.35457       -0.93626
H          0.43031       -1.88603        1.64115
H         -1.14789       -1.35457        0.93626
