10
BHPERI-07r
P         -0.29584       -1.58652        0.00000
C         -0.08286       -0.32282        1.28602
C         -0.08286       -0.32282       -1.28602
C         -0.08286        0.90939        0.72895
C         -0.08286        0.90939       -0.72895
H          0.99164       -2.19230        0.00000
H         -0.09867       -0.52734        2.34781
H         -0.09867       -0.52734       -2.34781
H         -0.08351        1.83018        1.30241
H         -0.08351        1.83018       -1.30241
