16
BUT14DIOL-B33
C          1.87348       -0.51658        0.00753
H          1.86186       -1.18315       -0.85416
O          3.10263        0.19795       -0.08114
C          0.65443        0.39511       -0.02477
H          0.69825        1.07961        0.82873
H          0.70301        1.00775       -0.92758
C         -0.65228       -0.39438        0.01525
H         -0.70097       -1.00120        0.92195
H         -0.70240       -1.08106       -0.83239
H          3.16230        0.76281        0.69390
H          1.84867       -1.14110        0.90687
C         -1.86945        0.50977       -0.02469
H         -1.84651        1.19919        0.82606
H         -1.85595        1.10745       -0.94205
O         -3.02830       -0.31865        0.02505
H         -3.80002        0.25175       -0.01252
