60
C60ISO-1
C         -1.23626        0.00000        3.32999
C         -0.38203       -1.17576        3.32999
C          1.00016       -0.72666        3.32999
C          1.00016        0.72666        3.32999
C         -0.38203        1.17576        3.32999
C          2.34434       -2.60147        0.59464
C          3.19858       -1.42570        0.59464
C          2.96248       -0.69904        1.83091
C          1.96231       -1.42570        2.59497
C          1.58028       -2.60147        1.83091
C          3.19858        1.42570        0.59464
C          2.34434        2.60147        0.59464
C          1.58028        2.60147        1.83091
C          1.96231        1.42570        2.59497
C          2.96248        0.69904        1.83091
C         -0.36751        3.48260        0.59464
C         -1.74969        3.03350        0.59464
C         -1.98580        2.30683        1.83091
C         -0.74954        2.30683        2.59497
C          0.25062        3.03350        1.83091
C         -3.42572        0.72666        0.59464
C         -3.42572       -0.72666        0.59464
C         -2.80758       -1.17576        1.83091
C         -2.42555        0.00000        2.59497
C         -2.80758        1.17576        1.83091
C         -1.74969       -3.03350        0.59464
C         -0.36751       -3.48260        0.59464
C          0.25062       -3.03350        1.83091
C         -0.74954       -2.30683        2.59497
C         -1.98580       -2.30683        1.83091
C         -0.25062       -3.03350       -1.83091
C          0.74954       -2.30683       -2.59497
C          1.98580       -2.30683       -1.83091
C          1.74969       -3.03350       -0.59464
C          0.36751       -3.48260       -0.59464
C          2.80758       -1.17576       -1.83091
C          2.42555        0.00000       -2.59497
C          2.80758        1.17576       -1.83091
C          3.42572        0.72666       -0.59464
C          3.42572       -0.72666       -0.59464
C          1.98580        2.30683       -1.83091
C          0.74954        2.30683       -2.59497
C         -0.25062        3.03350       -1.83091
C          0.36751        3.48260       -0.59464
C          1.74969        3.03350       -0.59464
C         -1.58028        2.60147       -1.83091
C         -1.96231        1.42570       -2.59497
C         -2.96248        0.69904       -1.83091
C         -3.19858        1.42570       -0.59464
C         -2.34434        2.60147       -0.59464
C         -2.96248       -0.69904       -1.83091
C         -1.96231       -1.42570       -2.59497
C         -1.58028       -2.60147       -1.83091
C         -2.34434       -2.60147       -0.59464
C         -3.19858       -1.42570       -0.59464
C         -1.00016       -0.72666       -3.32999
C         -1.00016        0.72666       -3.32999
C          0.38203        1.17576       -3.32999
C          1.23626        0.00000       -3.32999
C          0.38203       -1.17576       -3.32999
