11
CDIE20-R20
C          0.00000        0.43744        0.00000
C         -1.38884        0.82640        0.00000
C         -0.49516        1.78772        0.00000
C          0.96338       -0.47044        0.00000
C          0.71722       -1.95179        0.00000
H         -2.42874        0.55266        0.00000
H         -0.29676        2.84487        0.00000
H          1.99156       -0.12856        0.00000
H          1.15276       -2.43685        0.87855
H         -0.35124       -2.17127        0.00000
H          1.15276       -2.43685       -0.87855
