16
DC13-ISO_C8H8_41
C          0.78377        0.78377        0.78377
C         -0.78377        0.78377        0.78377
C         -0.78377        0.78377       -0.78377
C          0.78377        0.78377       -0.78377
C          0.78377       -0.78377        0.78377
C         -0.78377       -0.78377        0.78377
C         -0.78377       -0.78377       -0.78377
C          0.78377       -0.78377       -0.78377
H          1.41106       -1.41106        1.41106
H          1.41106        1.41106        1.41106
H         -1.41106        1.41106        1.41106
H         -1.41106       -1.41106        1.41106
H         -1.41106        1.41106       -1.41106
H         -1.41106       -1.41106       -1.41106
H          1.41106       -1.41106       -1.41106
H          1.41106        1.41106       -1.41106
