20
FH51-C4H9NHCONH2
C         -4.59446       -0.66461       -0.14919
H         -4.34664       -0.53355       -1.21793
H         -5.69509       -0.64456       -0.09267
C         -4.06171        0.53680        0.63481
H         -4.59299        1.45298        0.31729
H         -4.28993        0.38386        1.70562
N         -2.62018        0.68159        0.46338
H         -2.21068        0.29582       -0.38242
C         -1.82660        1.66877        1.01665
O         -0.68256        1.88908        0.62237
N         -2.42202        2.41260        2.02880
H         -3.18613        2.00917        2.56129
H         -1.75685        2.95821        2.56661
C         -4.08344       -2.02482        0.34167
H         -2.98269       -2.04358        0.30776
H         -4.35350       -2.14535        1.40457
C         -4.64405       -3.19595       -0.46852
H         -4.26610       -4.15823       -0.09599
H         -5.74310       -3.22729       -0.41860
H         -4.36349       -3.11703       -1.52969
