10
HAL59-NBS
Br         0.00000        0.00000        1.63340
C          0.00000        1.15635       -0.96957
N          0.00000        0.00000       -0.18563
O          0.00000        2.28460       -0.57260
O          0.00000       -2.28460       -0.57260
C          0.00000       -1.15635       -0.96957
C          0.00000       -0.66192       -2.38632
C          0.00000        0.66192       -2.38632
H          0.00000        1.34825       -3.21868
H          0.00000       -1.34825       -3.21868
