12
HAL59-PhI
I          0.00000        0.00000        1.54204
C          0.00000        0.00000       -0.55300
C          0.00000        1.20557       -1.23820
C          0.00000        1.19911       -2.62543
C          0.00000        0.00000       -3.32098
C          0.00000       -1.19911       -2.62543
C          0.00000       -1.20557       -1.23820
H          0.00000        2.14238       -0.69755
H          0.00000        2.13968       -3.16124
H          0.00000        0.00000       -4.40321
H          0.00000       -2.13968       -3.16124
H          0.00000       -2.14238       -0.69755
