13
HAL59-FI_pyr
F          0.00000        0.00000        3.35157
I          0.00000        0.00000        1.37074
C          0.00000        1.14836       -1.73069
C          0.00000        1.19346       -3.11249
C          0.00000        0.00000       -3.81536
C          0.00000       -1.19346       -3.11249
C          0.00000       -1.14836       -1.73069
N          0.00000        0.00000       -1.05725
H          0.00000        2.05128       -1.13194
H          0.00000        2.14745       -3.62036
H          0.00000        0.00000       -4.89758
H          0.00000       -2.14745       -3.62036
H          0.00000       -2.05128       -1.13194
