36
INV24-Pentahelicene
C          2.76240       -0.48647       -2.03128
C          3.35194       -0.36859       -0.81205
C          2.56191       -0.26473        0.36158
C          1.14852       -0.30263        0.27343
C          0.55905       -0.73542       -0.96979
C          1.36304       -0.69226       -2.13567
C          0.77953       -0.89017       -3.42169
C         -0.53471       -1.18809       -3.55884
C         -1.33436       -1.45024       -2.41030
C         -0.77333       -1.29853       -1.10983
C          3.19774       -0.09608        1.62750
C          2.47520        0.09585        2.75821
C          1.06605        0.29204        2.68272
C          0.40516        0.17366        1.42701
C          0.33647        0.69385        3.82231
C         -0.98262        1.06084        3.72480
C         -1.60205        1.07486        2.46503
C         -0.92321        0.64904        1.34850
C         -1.50752       -1.83098       -0.02620
C         -2.77136       -2.34347       -0.19465
C         -3.36889       -2.36605       -1.46471
C         -2.64826       -1.94586       -2.55438
H          3.35431       -0.48071       -2.93757
H          4.42814       -0.29904       -0.72023
H          1.41536       -0.78616       -4.29125
H         -0.97694       -1.30686       -4.53945
H          4.27878       -0.14001        1.66428
H          2.96269        0.18398        3.72082
H          0.84971        0.74219        4.77426
H         -1.52952        1.37762        4.60280
H         -2.61743        1.43539        2.36747
H         -1.41537        0.68971        0.39048
H         -1.06620       -1.84735        0.95647
H         -3.30233       -2.74477        0.65834
H         -4.37103       -2.75481       -1.58722
H         -3.06484       -2.02277       -3.55092
