81
ISOL24-i4e
C         -4.64329        2.47589        0.48908
C         -5.81233        1.50692        0.38964
C         -5.44347        0.31387       -0.56801
C         -3.88994        0.10134       -0.64866
C         -3.09548        0.36019        0.66753
C         -3.36027        1.85219        1.08497
C         -3.48953       -1.23723       -1.27467
C         -2.01520       -1.19776       -1.67981
C         -1.12418       -0.57963       -0.62969
C         -1.58841        0.12844        0.42254
C         -6.21479       -0.96030       -0.17400
C         -5.91829        0.72594       -1.98033
C         -0.65961        0.66201        1.51527
C          0.86501        0.43802        1.32816
C          1.12795       -0.82000        0.50611
C          0.37526       -0.68753       -0.85960
C          2.58623       -1.04167        0.04546
C          2.43506       -1.98995       -1.18965
C          0.93796       -1.90556       -1.63386
C          3.61044       -1.43918        1.14513
C          4.96692       -0.74468        0.89160
C          4.95079        0.76248        1.23168
C          6.20041        1.47593        0.78283
C          6.40637        2.02802       -0.42412
C          3.82669       -2.95130        1.32353
C          7.71725        2.68898       -0.77577
C          5.38014        2.03823       -1.53196
O         -6.17594        1.13800        1.73739
C          0.76365        0.58281       -1.67432
C          0.62899       -2.04509        1.30964
H          3.21952       -1.04825        2.09792
H         -3.52573        0.87724       -1.34134
C         -3.53443       -0.58908        1.81186
H         -4.94021        3.35008        1.08169
H         -4.43657        2.83139       -0.52896
H         -6.67592        2.03004       -0.05549
H         -3.39351        1.92051        2.17839
H         -2.52471        2.47966        0.75231
H         -4.11058       -1.45695       -2.15235
H         -3.65479       -2.05026       -0.55701
H         -1.65985       -2.21373       -1.90109
H         -1.90477       -0.63342       -2.62224
H         -5.89346       -1.35863        0.79187
H         -7.29378       -0.74637       -0.12522
H         -6.07509       -1.74064       -0.93038
H         -5.48744        1.69464       -2.26704
H         -5.61355       -0.01689       -2.72764
H         -7.01299        0.81323       -2.00902
H         -0.96263        0.18531        2.45834
H         -0.83790        1.73289        1.67222
H          1.32028        1.30091        0.82742
H          1.34189        0.36112        2.31540
H          2.91928       -0.07127       -0.33849
H          3.10980       -1.68267       -1.99739
H          2.69139       -3.02296       -0.93729
H          0.40661       -2.82096       -1.35047
H          0.83051       -1.78926       -2.71893
H          5.24454       -0.87404       -0.16495
H          5.75533       -1.23135        1.48420
H          4.06422        1.22620        0.78153
H          4.83214        0.86877        2.31978
H          7.02528        1.50461        1.49868
H          4.43893       -3.13508        2.21652
H          4.36058       -3.37283        0.46116
H          2.88198       -3.49338        1.43610
H          8.42349        2.65732        0.06295
H          8.18388        2.19623       -1.64352
H          7.56052        3.74180       -1.05970
H          4.45300        1.52318       -1.26120
H          5.78935        1.55251       -2.43144
H          5.13205        3.07177       -1.82041
H         -6.95708        0.57283        1.67892
H          0.54041        1.50085       -1.12214
H          0.16787        0.59395       -2.59634
H          1.82094        0.58723       -1.96674
H         -0.44193       -1.97071        1.51969
H          1.16903       -2.09486        2.26299
H          0.80627       -2.98357        0.77492
H         -4.56164       -0.38100        2.11546
H         -2.89873       -0.43705        2.69184
H         -3.44019       -1.63838        1.50852
