17
PA26-Gp
N         -2.14953       -0.39732        0.00000
C         -2.60095        0.85642        0.00000
N         -1.58000        1.68086        0.00000
C         -0.41986        0.94399        0.00000
C          0.95486        1.31587        0.00000
O          1.42843        2.43259        0.00000
N          1.75022        0.17312        0.00000
C          1.30396       -1.12076        0.00000
N          2.21947       -2.08029        0.00000
N          0.02489       -1.43869        0.00000
C         -0.77990       -0.38160        0.00000
H         -2.73851       -1.22114        0.00000
H          3.20859       -1.89461        0.00000
H          1.92303       -3.04239        0.00000
H         -3.63961        1.14354        0.00000
H          2.75058        0.33950        0.00000
H         -1.65567        2.69091        0.00000
