15
RC21-3int3
C         -0.48955        0.00881       -1.58594
C          0.84103       -0.00852       -1.29527
C          1.54177       -0.02290        0.00000
C          0.84103       -0.00852        1.29527
C         -0.48955        0.00881        1.58594
C         -1.58078        0.01895        0.69193
C         -1.58078        0.01895       -0.69193
H         -0.74901        0.01517       -2.63931
H          1.51433       -0.01438       -2.14867
H          2.27237        0.80822        0.00000
H          2.23653       -0.88474        0.00000
H          1.51433       -0.01438        2.14867
H         -0.74901        0.01517        2.63931
H         -2.56138        0.02968        1.15759
H         -2.56138        0.02968       -1.15759
