13
RC21-9e
O         -2.41572       -0.15563        0.00000
C         -1.11909       -0.06593        0.00000
C         -0.43652        1.18419        0.00000
C          0.92433        1.18337        0.00000
C          1.63241       -0.04261        0.00000
C          0.95538       -1.27863        0.00000
C         -0.40661       -1.30370        0.00000
H         -2.86176        0.70643        0.00000
H         -1.00479        2.10838        0.00000
H          1.47294        2.11704        0.00000
H          2.71619       -0.02717        0.00000
H          1.52118       -2.20170        0.00000
H         -0.97795       -2.22405        0.00000
