17
S66-61A
C         -2.52405       -0.10506        0.35411
H         -2.73943       -0.69791       -0.53479
H         -2.47503       -0.78843        1.20160
H         -3.36073        0.57496        0.51017
C         -1.21040        0.64930        0.19217
H         -1.03740        1.28045        1.06748
H         -1.27487        1.32546       -0.66368
C         -0.02220       -0.28469        0.00276
H          0.06075       -0.94512        0.87081
H         -0.20955       -0.93598       -0.85602
C          1.29430        0.45119       -0.20823
H          1.46294        1.13779        0.62522
H          1.21740        1.07376       -1.10252
C          2.47889       -0.49684       -0.33977
H          2.34004       -1.17320       -1.18298
H          3.41281        0.04171       -0.49319
H          2.58651       -1.10739        0.55685
