12
S66-28B
N         -0.48155        1.18127       -0.27190
H         -0.85486        2.08303       -0.53479
C          0.91060        1.10828       -0.13989
O          1.60151        2.10271       -0.28472
C          1.38950       -0.22580        0.17822
H          2.44656       -0.37801        0.31235
C          0.50979       -1.24018        0.30444
H          0.81572       -2.24860        0.54097
N         -0.83546       -1.05514        0.13435
H         -1.48420       -1.81770        0.23322
C         -1.40990        0.16966       -0.16507
O         -2.60770        0.32048       -0.30718
