12
TAUT15-8a
C         -0.80917       -1.62615        0.00000
N         -1.65789       -0.56511        0.00000
C         -0.88945        0.57267        0.00000
C          0.41455        0.13830        0.00000
N          0.44946       -1.23758        0.00000
C          1.66394        0.94877        0.00000
H         -2.66095       -0.60659        0.00000
H         -1.32086        1.55680        0.00000
H         -1.15681       -2.64429        0.00000
H          2.26594        0.72556        0.87831
H          2.26594        0.72556       -0.87831
H          1.43529        2.01205        0.00000
