12
TAUT15-8b
N         -1.03060       -0.43232        0.00000
C         -1.81252        0.68361        0.00000
N         -1.08641        1.78101        0.00000
C          0.21700        1.34408        0.00000
C          0.28336       -0.02851        0.00000
C          1.42752       -0.97880        0.00000
H          1.04217        2.03503        0.00000
H         -2.88734        0.63545        0.00000
H          1.42152       -1.61814       -0.88237
H          2.35938       -0.42031        0.00000
H          1.42152       -1.61814        0.88237
H         -1.35561       -1.38296        0.00000
