59
UPU23-1b
H         -4.91260       -1.98165        0.53500
O         -4.19836       -1.47050        0.12207
C         -4.13327       -1.84326       -1.26238
H         -5.09483       -1.66569       -1.76001
H         -3.86976       -2.90395       -1.37514
C         -3.05610       -1.02687       -1.93744
H         -2.99016       -1.34565       -2.98564
O         -3.39091        0.38667       -1.90785
C         -2.23296        1.17130       -1.70926
H         -2.14815        1.93115       -2.48915
N         -2.37560        1.91019       -0.41270
C         -3.39330        1.64551        0.46976
H         -4.02656        0.81173        0.19101
C         -3.57892        2.36651        1.60389
H         -4.39189        2.13399        2.27853
C         -2.69507        3.45646        1.92488
O         -2.76198        4.20529        2.90490
N         -1.65290        3.61926        0.99379
H         -0.99286        4.37217        1.17055
C         -1.43332        2.90115       -0.16338
O         -0.51381        3.14910       -0.94384
C         -1.66267       -1.11391       -1.30960
H         -1.71751       -1.19900       -0.22081
C         -1.03009        0.21538       -1.74517
H         -0.20462        0.54836       -1.11101
O         -0.60827        0.13026       -3.11111
H         -0.48243       -0.82103       -3.29724
O         -0.98617       -2.24782       -1.86148
P          0.03186       -3.16154       -0.92571
O          0.35202       -4.34296       -1.78777
O         -0.52823       -3.27796        0.45719
O          1.34794       -2.20493       -0.75365
C          2.10685       -1.77788       -1.90137
H          1.46791       -1.20916       -2.58308
H          2.51483       -2.64674       -2.43051
C          3.23416       -0.88930       -1.41244
H          3.79661       -0.52659       -2.27871
O          2.66385        0.26886       -0.72577
C          3.15556        0.34133        0.60954
H          3.92879        1.10598        0.71245
N          2.06138        0.75310        1.49593
C          0.92309       -0.01826        1.56420
H          0.91922       -0.87515        0.89749
C         -0.11372        0.27147        2.38476
H         -0.99048       -0.36119        2.42018
C         -0.04564        1.42700        3.24593
O         -0.90142        1.79638        4.05376
N          1.13355        2.17538        3.08650
H          1.22650        3.00670        3.66497
C          2.20438        1.91662        2.25451
O          3.19926        2.63718        2.21586
C          4.19599       -1.55615       -0.41859
H          4.17821       -2.64517       -0.49269
C          3.70544       -1.06092        0.94693
H          2.89120       -1.70124        1.29488
O          4.71328       -1.05235        1.94084
H          5.54793       -0.89774        1.45076
O          5.54133       -1.06633       -0.58185
H          6.07341       -1.76358       -0.99572
