59
UPU23-1g
H         -1.37159        4.94359       -2.63651
O         -1.27881        4.47084       -1.79449
C          0.07897        4.61543       -1.35067
H          0.24602        5.61923       -0.93798
H          0.78507        4.45125       -2.17473
C          0.36799        3.57856       -0.29053
H          1.40999        3.70067        0.03381
O         -0.49911        3.76884        0.86787
C         -0.84680        2.51787        1.42858
H         -0.61038        2.49720        2.49399
N         -2.32712        2.32443        1.31398
C         -3.10780        3.10199        0.49797
H         -2.56625        3.84702       -0.07402
C         -4.45355        2.94204        0.41216
H         -5.04448        3.57049       -0.24113
C         -5.11413        1.93367        1.19954
O         -6.32717        1.68961        1.22953
N         -4.23591        1.18104        1.99606
H         -4.64961        0.45143        2.57066
C         -2.86769        1.30757        2.09377
O         -2.17335        0.58385        2.80860
C          0.12834        2.12487       -0.69482
H         -0.77119        2.05081       -1.31435
C         -0.08649        1.43447        0.65351
H         -0.66377        0.50997        0.57751
O          1.15624        1.20451        1.31710
H          1.79037        0.94211        0.62298
O          1.25398        1.61296       -1.41643
P          0.94468        0.60061       -2.67942
O          2.28191        0.28660       -3.27561
O         -0.18520        1.11638       -3.51886
O          0.42013       -0.66455       -1.77008
C         -0.27819       -1.75855       -2.39163
H          0.15821       -1.98958       -3.36977
H         -1.33442       -1.49788       -2.52286
C         -0.17025       -2.96767       -1.48778
H         -0.81367       -3.75965       -1.89183
O          1.20136       -3.45702       -1.46984
C          1.55976       -3.88274       -0.17156
H          1.99132       -4.88404       -0.20681
N          2.62314       -2.97791        0.36818
C          2.88271       -1.75168       -0.18440
H          2.25318       -1.48830       -1.02538
C          3.85067       -0.92711        0.29021
H          4.03926        0.02993       -0.17910
C          4.66089       -1.33489        1.40901
O          5.56236       -0.68234        1.94894
N          4.35174       -2.62061        1.88466
H          4.90662       -2.96710        2.66344
C          3.38175       -3.48287        1.42028
O          3.18792       -4.60126        1.89609
C         -0.52442       -2.73977       -0.01681
H         -0.18359       -1.75155        0.30877
C          0.29300       -3.83697        0.68900
H          0.51347       -3.60901        1.73741
O         -0.36711       -5.09602        0.56740
H         -1.32481       -4.89807        0.59397
O         -1.93316       -2.87867        0.16360
H         -2.17100       -2.50409        1.02876
