59
UPU23-7a
H         -5.35170       -1.39835       -2.37287
O         -4.51982       -1.42859       -1.87386
C         -4.67015       -0.59277       -0.71607
H         -5.58273       -0.85114       -0.16506
H         -4.72026        0.46744       -1.00100
C         -3.47061       -0.77000        0.18488
H         -3.56328       -0.06669        1.02188
O         -3.42832       -2.12476        0.72567
C         -2.09122       -2.57086        0.83880
H         -1.89817       -2.95087        1.84319
N         -1.87046       -3.71038       -0.11146
C         -2.76482       -4.01923       -1.10335
H         -3.63737       -3.37693       -1.14427
C         -2.56121       -5.04083       -1.97417
H         -3.28613       -5.26246       -2.74619
C         -1.36946       -5.84257       -1.88284
O         -1.05896       -6.79667       -2.60825
N         -0.50594       -5.44744       -0.84809
H          0.35771       -5.97437       -0.74360
C         -0.68368       -4.41814        0.05177
O          0.13719       -4.13656        0.92486
C         -2.10131       -0.59628       -0.47084
H         -2.08598       -1.03977       -1.46955
C         -1.18825       -1.38701        0.47256
H         -0.25594       -1.70725        0.00049
O         -0.92761       -0.63172        1.65647
H         -0.91590        0.30518        1.37767
O         -1.74755        0.78354       -0.52311
P         -0.91822        1.34096       -1.85541
O         -1.86925        2.16945       -2.66635
O         -0.13068        0.21902       -2.45736
O          0.15345        2.30388       -1.08830
C         -0.33187        3.36651       -0.24213
H         -1.19331        3.02520        0.34019
H         -0.63209        4.22354       -0.85527
C          0.77724        3.78668        0.69220
H          0.43563        4.66036        1.26221
O          1.05705        2.70309        1.62507
C          2.43365        2.65710        1.94606
H          2.57658        2.65893        3.02781
N          3.01820        1.37804        1.41835
C          2.31724        0.54580        0.58506
H          1.31925        0.88682        0.34715
C          2.84454       -0.59737        0.07906
H          2.26461       -1.22709       -0.58194
C          4.19863       -0.96868        0.39460
O          4.80411       -1.97490        0.00379
N          4.85457       -0.03964        1.21900
H          5.82104       -0.24299        1.46143
C          4.34599        1.12588        1.74997
O          5.00899        1.88957        2.45254
C          2.13565        4.08889        0.06764
H          2.35639        3.37917       -0.73575
C          3.08357        3.86706        1.25786
H          4.11646        3.67133        0.95868
O          3.01151        4.97888        2.15137
H          2.88603        5.76423        1.58150
O          2.14757        5.43131       -0.41861
H          2.86942        5.51449       -1.06411
