16
BHROT27-bithiophene_TS
C         -1.44528       -0.89458       -0.65304
C         -2.82870       -0.89088       -0.36843
C         -3.13752       -0.10633        0.69814
S         -1.75271        0.62751        1.36003
C         -0.71937       -0.11625        0.20252
C          0.71937        0.11625        0.20252
S          1.75271       -0.62751        1.36003
C          3.13752        0.10633        0.69814
C          2.82870        0.89088       -0.36843
C          1.44528        0.89458       -0.65304
H         -0.98731       -1.45931       -1.44710
H         -3.55954       -1.45216       -0.92499
H         -4.10326        0.07460        1.13287
H          4.10326       -0.07460        1.13287
H          3.55954        1.45216       -0.92499
H          0.98731        1.45931       -1.44710
