18
CARBHB12-4O
C          0.01355       -0.15117       -0.36188
C          0.12759        0.65043        1.75336
C          0.10512       -0.69437        1.83581
N          0.03662       -1.15399        0.53958
N          0.07144        0.95244        0.41199
H          0.18038        1.39742        2.52921
H          0.13389       -1.34300        2.69667
C         -0.00625       -2.54646        0.17202
C          0.08019        2.29398       -0.12269
H          0.87200       -3.07714        0.54156
H         -0.90005       -3.03149        0.56678
H         -0.02195       -2.60873       -0.91265
H         -0.78933        2.85582        0.22100
H          0.98266        2.82629        0.17958
H          0.05692        2.22970       -1.20817
O         -0.03204        0.61616       -3.18496
H          0.06318        0.20314       -2.30235
H         -0.97393        0.58094       -3.35486
