6
CARBHB12-3O
O         -2.23154       -0.01849        0.00000
H         -1.31099        0.25907        0.00000
H         -2.73554        0.79549        0.00000
Si         1.46653       -0.05477        0.00000
H          2.40577       -0.49065       -1.09013
H          2.40577       -0.49065        1.09013
