12
DC13-carbooxo2
O         -1.85076        3.20563        0.00000
C         -1.25339        2.17094        0.00000
C         -1.21391        0.71460        0.00000
C         -1.21391       -0.71460        0.00000
C         -1.25339       -2.17094        0.00000
O         -1.85076       -3.20563        0.00000
C         -0.01191       -1.40858        0.00000
C          1.22582       -0.69398        0.00000
C          2.50679        0.00000        0.00000
O          3.70154        0.00000        0.00000
C          1.22582        0.69398        0.00000
C         -0.01191        1.40858        0.00000
