16
FH51-dimethylpyrrole
C         -1.56254       -0.82928       -0.00076
C         -0.17866       -0.81040       -0.00046
C          0.24283        0.55299       -0.00039
C         -0.88881        1.34949       -0.00060
N         -1.97407        0.49150       -0.00085
H         -2.94189        0.79080       -0.00080
H          0.45965       -1.68909       -0.00008
H          1.26579        0.91783       -0.00019
C         -1.05118        2.83361        0.00001
H         -1.59450        3.19620       -0.88846
H         -1.59503        3.19515        0.88859
H         -0.06492        3.31390        0.00061
C         -2.53419       -1.96259        0.00033
H         -3.18727       -1.95336        0.88886
H         -3.18701       -1.95567       -0.88842
H         -1.99149       -2.91596        0.00167
