6
G21IP-26
C          0.66250        0.00000        0.00000
C         -0.66250        0.00000        0.00000
H          1.23149       -0.92119        0.00000
H          1.23149        0.92119        0.00000
H         -1.23149       -0.92119        0.00000
H         -1.23149        0.92119        0.00000
