6
HAL59-NH3_FCl
N          0.00000        0.00000       -2.08713
H          0.00000        0.94898       -2.43333
H          0.82184       -0.47449       -2.43333
H         -0.82184       -0.47449       -2.43333
Cl         0.00000        0.00000        0.26104
F          0.00000        0.00000        1.94135
