13
ICONF-H4P2O7_1
O         -2.53821       -0.08772       -1.02724
P         -1.35942       -0.07970        0.02969
O         -1.27738       -1.25286        0.93417
O          0.00000        0.00000       -0.87884
P          1.35942        0.07970        0.02969
O          1.27738        1.25286        0.93417
O          1.49416       -1.36283        0.64971
O          2.53821        0.08772       -1.02724
O         -1.49416        1.36283        0.64971
H         -2.91546       -0.97874       -1.12334
H          0.59640       -1.64077        0.97643
H          2.91546        0.97874       -1.12334
H         -0.59640        1.64077        0.97643
