7
IL16-147B
O          2.80463       -2.05209        0.86051
C          3.45417       -1.35959        0.02862
C          4.22418       -2.21988       -1.00695
F          5.03892       -3.09751       -0.40189
O          3.53467       -0.12834       -0.07340
F          4.97311       -1.49334       -1.83814
F          3.36709       -2.92903       -1.76105
