30
INV24-BN_Corannulene_TS
B          1.10737        0.35880       -0.00001
N         -0.01450        1.20282       -0.00000
B          0.00075        2.60282        0.00000
N          1.36882        3.10581        0.00001
B          2.55330        2.25336        0.00000
N          2.45545        0.79218       -0.00001
B         -1.15360        0.38302       -0.00000
N         -2.48859        0.84420        0.00000
B         -2.55739        2.30660       -0.00000
N         -1.35493        3.13515        0.00000
N          0.65652       -0.98205       -0.00001
N         -0.73312       -0.97661       -0.00001
B          1.48928       -2.10532       -0.00000
N          2.89572       -1.69475        0.00000
B          3.38905       -0.32843       -0.00000
B         -1.57639       -2.09566       -0.00000
B         -0.63608       -3.54774        0.00000
N          0.79734       -3.38779        0.00000
B         -3.44552       -0.26132        0.00000
N         -2.97167       -1.63023        0.00000
H         -3.69829       -2.32829        0.00001
H         -4.61767       -0.04687        0.00000
H         -3.61399        2.85639       -0.00001
H         -1.52703        4.12792       -0.00000
H          1.56054        4.09496        0.00001
H          3.62111        2.78089        0.00000
H          4.56549       -0.14291        0.00000
H          3.61305       -2.40246        0.00001
H          1.34393       -4.23690        0.00001
H         -1.02897       -4.67754        0.00000
