30
INV24-BN_Corannulene
B          1.10957        0.36385        0.52397
N         -0.01010        1.23520        0.63011
B          0.00222        2.53238        0.05342
N          1.32941        3.02081       -0.26422
B          2.50312        2.18153       -0.26724
N          2.40788        0.77597        0.10090
B         -1.14972        0.38970        0.52676
N         -2.43836        0.82691        0.11063
B         -2.50780        2.23560       -0.25100
N         -1.31585        3.05007       -0.25338
N          0.67191       -0.99616        0.57686
N         -0.74315       -0.98463        0.56639
B          1.45256       -2.04428        0.03361
N          2.83148       -1.65977       -0.21791
B          3.31271       -0.30418       -0.24213
B         -1.53487       -2.03659        0.04364
B         -0.63723       -3.44199       -0.33704
N          0.78277       -3.28696       -0.29893
B         -3.36462       -0.23991       -0.22947
N         -2.90288       -1.60101       -0.20759
H         -4.47555        0.01259       -0.57819
H         -3.56465       -2.29636       -0.51281
H         -1.05202       -4.50980       -0.68152
H          1.34629       -4.06655       -0.60708
H          3.48531       -2.36506       -0.51803
H          4.42775       -0.07821       -0.59395
H          3.53942        2.63738       -0.63793
H          1.45639        3.95012       -0.63220
H         -1.42539        3.98293       -0.61806
H         -3.53660        2.71646       -0.61063
