43
PCONF21-SER_ab
H          7.06299       -1.63698        0.55059
C          6.83976       -0.85495       -0.17910
H          6.63953       -1.31642       -1.15039
H          7.72771       -0.22241       -0.26245
C          5.68840       -0.01111        0.34823
O          5.73949        0.54727        1.44028
N          4.60715        0.08446       -0.47815
H          4.56235       -0.41929       -1.35335
C          3.40570        0.81499       -0.10917
H          3.41074        0.89334        0.98240
C          3.37047        2.22527       -0.72227
H          3.38046        2.16388       -1.81428
H          2.46828        2.76388       -0.41282
H          4.24351        2.78979       -0.38699
C          2.21122       -0.01032       -0.60317
O          2.21310       -0.50849       -1.72781
N          1.18562       -0.15245        0.27564
H          1.20147        0.30395        1.17902
C         -0.07068       -0.79255       -0.07695
H         -0.15454       -0.79169       -1.16678
C         -0.10521       -2.24635        0.41243
H          0.73415       -2.78314       -0.05176
H          0.03264       -2.25531        1.50314
O         -1.36444       -2.78207        0.03062
H         -1.39994       -3.70422        0.31059
C         -1.19138        0.02307        0.58385
O         -1.05828        0.42168        1.74289
N         -2.26595        0.29884       -0.18741
H         -2.37477       -0.13248       -1.09682
C         -3.43469        1.00041        0.32705
H         -3.41306        0.89464        1.41646
C         -3.41345        2.49178       -0.04404
H         -3.42104        2.60758       -1.13073
H         -4.28713        3.00751        0.36778
H         -2.51125        2.95769        0.36021
C         -4.66747        0.31774       -0.28282
O         -4.69550        0.04215       -1.47907
N         -5.68640        0.06322        0.57935
H         -5.55767        0.28687        1.55511
C         -6.93901       -0.54238        0.15698
H         -7.10138       -1.50148        0.66149
H         -7.78748        0.11699        0.36654
H         -6.87215       -0.71153       -0.91702
