8
PNICO23-17
N          0.87376       -2.11828        0.00000
P          0.00000        0.41813        0.00000
H          0.20945       -2.88074        0.00000
F         -0.86459        1.81339        0.00000
H          1.46313       -2.22182        0.81507
H         -0.73537       -0.22007        1.03193
H          1.46313       -2.22182       -0.81507
H         -0.73537       -0.22007       -1.03193
