8
RC21-2p2
C         -0.76595        0.02334        0.00000
C          0.77277        0.03214        0.00000
O          1.16281       -1.27098        0.00000
H         -1.11584        1.05695        0.00000
H         -1.14311       -0.48291        0.88837
H         -1.14311       -0.48291       -0.88837
H          1.11622        0.56218        0.90157
H          1.11622        0.56218       -0.90157
