15
RC21-2e
C         -2.39839        0.07528       -0.37062
C         -1.16157       -0.36331        0.37130
O          0.00000        0.00000       -0.32991
C          1.16157        0.36331        0.37130
C          2.39839       -0.07528       -0.37062
H         -3.26575       -0.33461        0.14857
H         -2.40169       -0.29020       -1.39750
H         -2.46905        1.16419       -0.37190
H         -1.10654       -1.47612        0.37047
H         -1.08655       -0.03934        1.41463
H          1.08655        0.03934        1.41463
H          1.10654        1.47612        0.37047
H          2.46905       -1.16419       -0.37190
H          3.26575        0.33461        0.14857
H          2.40169        0.29020       -1.39750
