8
SIE4x4-nh32+_1.25
N          0.00000        0.00000       -1.35407
N          0.00000        0.00000        1.35407
H          0.84297        0.48669       -1.62974
H          0.00000       -0.97338       -1.62974
H         -0.84297        0.48669       -1.62974
H          0.84297       -0.48669        1.62974
H          0.00000        0.97338        1.62974
H         -0.84297       -0.48669        1.62974
