9
13ts_1a
C          0.64644        0.66205        0.00000
C          0.62059       -0.72735        0.00000
O         -1.43762       -1.04803        0.00000
N         -1.81431        0.12667        0.00000
N         -1.28272        1.17289        0.00000
H          0.87969        1.19136        0.91554
H          0.87969        1.19136       -0.91554
H          0.75412       -1.28448        0.91763
H          0.75412       -1.28448       -0.91763
